@<TRIPOS>MOLECULE
MOL
   42    46     1     0     0
SMALL
gas


@<TRIPOS>ATOM
      1 C1          20.3420     6.3400    -4.6350 c3         1 MOL      -0.018551
      2 C2          19.4230     7.0260    -5.5900 cc         1 MOL       0.080928
      3 N1          19.1960     8.3530    -5.4390 nd         1 MOL      -0.248019
      4 C3          18.3890     9.0400    -6.2940 ca         1 MOL       0.085409
      5 C4          18.1420    10.3900    -6.0560 ca         1 MOL      -0.033844
      6 C5          17.2840    11.1030    -6.8900 ca         1 MOL      -0.052096
      7 C6          16.6570    10.4690    -7.9740 cp         1 MOL      -0.016360
      8 C7          15.6610    11.2680    -8.9790 cp         1 MOL      -0.018332
      9 C8          14.9000    12.3800    -8.3290 ca         1 MOL      -0.054382
     10 C9          14.0050    13.1240    -9.0940 ca         1 MOL      -0.061651
     11 C10         13.7950    12.8510   -10.4510 ca         1 MOL      -0.062225
     12 C11         14.4550    11.8130   -11.1260 ca         1 MOL      -0.061651
     13 C12         15.3830    10.9800   -10.5000 ca         1 MOL      -0.054382
     14 C13         16.9090     9.1110    -8.2190 ca         1 MOL      -0.030035
     15 C14         17.7820     8.3770    -7.3970 ca         1 MOL       0.067248
     16 N2          18.0530     7.0370    -7.5620 na         1 MOL      -0.231041
     17 C15         17.7030     6.0680    -8.4600 cc         1 MOL       0.161781
     18 C16         16.9600     6.2330    -9.7370 ca         1 MOL       0.036104
     19 C17         17.3790     7.1900   -10.6780 ca         1 MOL      -0.049875
     20 C18         16.6710     7.3750   -11.8690 ca         1 MOL      -0.061438
     21 C19         15.5790     6.5620   -12.1670 ca         1 MOL      -0.060740
     22 C20         15.1860     5.5690   -11.2710 ca         1 MOL      -0.042781
     23 C21         15.8680     5.3970   -10.0600 ca         1 MOL       0.051386
     24 Cl1         15.2860     4.1660    -8.9430 cl         1 MOL      -0.083549
     25 N3          18.2250     4.8770    -8.0930 nd         1 MOL      -0.131799
     26 N4          18.9210     5.0610    -6.9770 nd         1 MOL      -0.130569
     27 C22         18.8170     6.3670    -6.6740 cc         1 MOL       0.174401
     28 H1          20.0360     6.5690    -3.6030 hc         1 MOL       0.029709
     29 H2          20.2970     5.2530    -4.7990 hc         1 MOL       0.029709
     30 H3          21.3710     6.6930    -4.7990 hc         1 MOL       0.029709
     31 H4          18.6270    10.8950    -5.2070 ha         1 MOL       0.064645
     32 H5          17.0980    12.1700    -6.6990 ha         1 MOL       0.063005
     33 H6          15.0460    12.6070    -7.2620 ha         1 MOL       0.062924
     34 H7          13.4500    13.9480    -8.6210 ha         1 MOL       0.062291
     35 H8          13.0820    13.4740   -11.0110 ha         1 MOL       0.062269
     36 H9          14.2340    11.6510   -12.1910 ha         1 MOL       0.062291
     37 H10         15.8900    10.1660   -11.0400 ha         1 MOL       0.062924
     38 H11         16.4170     8.6130    -9.0670 ha         1 MOL       0.065018
     39 H12         18.2720     7.7990   -10.4750 ha         1 MOL       0.063087
     40 H13         16.9770     8.1630   -12.5720 ha         1 MOL       0.062294
     41 H14         15.0270     6.7050   -13.1080 ha         1 MOL       0.062322
     42 H15         14.3350     4.9160   -11.5170 ha         1 MOL       0.063865
@<TRIPOS>BOND
     1     1     2 1   
     2     2     3 2   
     3     3     4 1   
     4     4     5 ar  
     5     5     6 ar  
     6     6     7 ar  
     7     7     8 1   
     8     8     9 ar  
     9     9    10 ar  
    10    10    11 ar  
    11    11    12 ar  
    12    12    13 ar  
    13     7    14 ar  
    14    14    15 ar  
    15    15    16 1   
    16    16    17 1   
    17    17    18 1   
    18    18    19 ar  
    19    19    20 ar  
    20    20    21 ar  
    21    21    22 ar  
    22    22    23 ar  
    23    23    24 1   
    24    17    25 2   
    25    25    26 1   
    26    26    27 2   
    27    27     2 1   
    28    15     4 ar  
    29    27    16 1   
    30    13     8 ar  
    31    23    18 ar  
    32     1    28 1   
    33     1    29 1   
    34     1    30 1   
    35     5    31 1   
    36     6    32 1   
    37     9    33 1   
    38    10    34 1   
    39    11    35 1   
    40    12    36 1   
    41    13    37 1   
    42    14    38 1   
    43    19    39 1   
    44    20    40 1   
    45    21    41 1   
    46    22    42 1   
@<TRIPOS>SUBSTRUCTURE
     1 MOL         1 TEMP              0 ****  ****    0 ROOT
