@<TRIPOS>MOLECULE
MOL
   49    53     1     0     0
SMALL
gas


@<TRIPOS>ATOM
      1 C1          18.1420    10.3740    -6.0570 ca         1 MOL      -0.033674
      2 C2          17.2940    11.0840    -6.8860 ca         1 MOL      -0.047392
      3 C3          16.6790    10.4710    -7.9680 ca         1 MOL       0.039066
      4 C4          16.9210     9.1260    -8.2180 ca         1 MOL      -0.025334
      5 C5          17.7820     8.3950    -7.3960 ca         1 MOL       0.067417
      6 C6          18.3990     9.0250    -6.2950 ca         1 MOL       0.085415
      7 N1          19.2260     8.3460    -5.4080 nc         1 MOL      -0.248019
      8 C7          19.4280     7.0840    -5.5610 cd         1 MOL       0.080928
      9 C8          18.8290     6.3490    -6.6390 cd         1 MOL       0.174400
     10 N2          18.0330     7.0020    -7.5770 na         1 MOL      -0.231083
     11 C9          17.6930     6.0220    -8.4930 cd         1 MOL       0.160270
     12 N3          18.1980     4.8690    -8.1200 nc         1 MOL      -0.131857
     13 N4          18.9240     5.0700    -6.9470 nc         1 MOL      -0.130570
     14 C10         15.7220    11.2610    -8.8070 c          1 MOL       0.243233
     15 N5          14.9750    12.1660    -8.1670 n          1 MOL      -0.307158
     16 C11         14.2170    13.1920    -8.8660 c3         1 MOL       0.036562
     17 C12         12.8120    12.7430    -9.1700 ca         1 MOL      -0.030849
     18 C13         12.3080    12.7990   -10.4610 ca         1 MOL      -0.057458
     19 C14         11.0400    12.3230   -10.7480 ca         1 MOL      -0.061935
     20 C15         10.2560    11.7890    -9.7440 ca         1 MOL      -0.062247
     21 C16         10.7440    11.7370    -8.4550 ca         1 MOL      -0.061935
     22 C17         12.0120    12.2130    -8.1710 ca         1 MOL      -0.057458
     23 O1          15.6340    11.0710   -10.0200 o          1 MOL      -0.271929
     24 C18         20.3450     6.3660    -4.6270 c3         1 MOL      -0.018551
     25 C19         16.9610     6.2140    -9.7630 ca         1 MOL       0.017454
     26 C20         15.8760     5.3990   -10.0870 ca         1 MOL      -0.051387
     27 C21         15.1930     5.5790   -11.2760 ca         1 MOL      -0.061544
     28 C22         15.5790     6.5630   -12.1590 ca         1 MOL      -0.062222
     29 C23         16.6520     7.3710   -11.8560 ca         1 MOL      -0.061544
     30 C24         17.3430     7.2010   -10.6680 ca         1 MOL      -0.051387
     31 H1          18.6180    10.8780    -5.2030 ha         1 MOL       0.064648
     32 H2          17.1040    12.1490    -6.6850 ha         1 MOL       0.063177
     33 H3          16.4310     8.6330    -9.0700 ha         1 MOL       0.065191
     34 H4          14.9340    12.1360    -7.1380 hn         1 MOL       0.150047
     35 H5          14.1740    14.0930    -8.2370 h1         1 MOL       0.051801
     36 H6          14.7230    13.3990    -9.8210 h1         1 MOL       0.051801
     37 H7          12.9230    13.2270   -11.2660 ha         1 MOL       0.062621
     38 H8          10.6560    12.3700   -11.7780 ha         1 MOL       0.062280
     39 H9           9.2490    11.4080    -9.9710 ha         1 MOL       0.062269
     40 H10         10.1230    11.3160    -7.6500 ha         1 MOL       0.062280
     41 H11         12.3890    12.1700    -7.1390 ha         1 MOL       0.062621
     42 H12         20.0590     6.5900    -3.5880 hc         1 MOL       0.029709
     43 H13         20.2720     5.2820    -4.8020 hc         1 MOL       0.029709
     44 H14         21.3790     6.6970    -4.8020 hc         1 MOL       0.029709
     45 H15         15.5610     4.6070    -9.3910 ha         1 MOL       0.063033
     46 H16         14.3360     4.9330   -11.5180 ha         1 MOL       0.062292
     47 H17         15.0320     6.7030   -13.1030 ha         1 MOL       0.062269
     48 H18         16.9620     8.1560   -12.5620 ha         1 MOL       0.062292
     49 H19         18.2000     7.8510   -10.4380 ha         1 MOL       0.063033
@<TRIPOS>BOND
     1     1     2 ar  
     2     1     6 ar  
     3     2     3 ar  
     4     3     4 ar  
     5     3    14 1   
     6     4     5 ar  
     7     5     6 ar  
     8     5    10 1   
     9     6     7 1   
    10     7     8 2   
    11     8     9 1   
    12     8    24 1   
    13     9    10 1   
    14     9    13 2   
    15    10    11 1   
    16    11    12 2   
    17    11    25 1   
    18    12    13 1   
    19    14    15 1   
    20    14    23 2   
    21    15    16 1   
    22    16    17 1   
    23    17    18 ar  
    24    17    22 ar  
    25    18    19 ar  
    26    19    20 ar  
    27    20    21 ar  
    28    21    22 ar  
    29    25    26 ar  
    30    25    30 ar  
    31    26    27 ar  
    32    27    28 ar  
    33    28    29 ar  
    34    29    30 ar  
    35     1    31 1   
    36     2    32 1   
    37     4    33 1   
    38    15    34 1   
    39    16    35 1   
    40    16    36 1   
    41    18    37 1   
    42    19    38 1   
    43    20    39 1   
    44    21    40 1   
    45    22    41 1   
    46    24    42 1   
    47    24    43 1   
    48    24    44 1   
    49    26    45 1   
    50    27    46 1   
    51    28    47 1   
    52    29    48 1   
    53    30    49 1   
@<TRIPOS>SUBSTRUCTURE
     1 MOL         1 TEMP              0 ****  ****    0 ROOT
